Circuit: * D:\Git\Magnavox_TVG2\SPICE\new\DMV.asc

Limiting rise time of source v5 to 0.0001
Limiting fall time of source v5 to 0.0001
Limiting rise time of source v4 to 4.7e-007
Limiting fall time of source v4 to 4.7e-007
Limiting rise time of source v3 to 0.0012195
Limiting fall time of source v3 to 0.0012195
WARNING: Less than two connections to node NC_01.  This node is used by V3.
.OP point found by inspection.

Date: Wed Jan 31 22:33:01 2024
Total elapsed time: 6.618 seconds.

tnom = 27
temp = 27
method = modified trap
totiter = 1418603
traniter = 1418603
tranpoints = 484759
accept = 368240
rejected = 116519
matrix size = 63
fillins = 16
solver = Normal
Matrix Compiler1:     285 opcodes  1.0/[0.3]/0.4
Matrix Compiler2: 5.63 KB object code size  0.3/0.4/[0.3]

