Circuit: * D:\Git\Magnavox_TVG2\SPICE\new\DMV.asc

Limiting rise time of source v5 to 0.0001
Limiting fall time of source v5 to 0.0001
Limiting rise time of source v4 to 4.7e-007
Limiting fall time of source v4 to 4.7e-007
Direct Newton iteration for .op point succeeded.

Date: Mon Aug 14 01:09:03 2023
Total elapsed time: 14.074 seconds.

tnom = 27
temp = 27
method = modified trap
totiter = 327852
traniter = 327840
tranpoints = 114164
accept = 85834
rejected = 28330
matrix size = 42
fillins = 18
solver = Normal
Matrix Compiler1:     204 opcodes  0.6/[0.2]/0.3
Matrix Compiler2: off  [0.2]/0.3/0.3

