Circuit: * D:\Git\Magnavox_TVG2\SPICE\new\DMV.asc

Limiting rise time of source v5 to 0.0001
Limiting fall time of source v5 to 0.0001
Limiting rise time of source v4 to 4.7e-007
Limiting fall time of source v4 to 4.7e-007
Direct Newton iteration for .op point succeeded.

Date: Wed Aug 16 16:59:56 2023
Total elapsed time: 10.842 seconds.

tnom = 27
temp = 27
method = modified trap
totiter = 326777
traniter = 326765
tranpoints = 112941
accept = 85587
rejected = 27354
matrix size = 42
fillins = 18
solver = Normal
Matrix Compiler1:     204 opcodes  0.6/[0.2]/0.3
Matrix Compiler2: off  [0.2]/0.3/0.3

