Circuit: * D:\Git\Magnavox_TVG2\SPICE\new\Draft1.asc

Limiting rise time of source v4 to 3.1776e-006
Limiting fall time of source v4 to 3.1776e-006
Limiting rise time of source v3 to 0.0012195
Limiting fall time of source v3 to 0.0012195
Direct Newton iteration for .op point succeeded.

Date: Sun Aug 13 15:21:38 2023
Total elapsed time: 0.175 seconds.

tnom = 27
temp = 27
method = modified trap
totiter = 70443
traniter = 70433
tranpoints = 30790
accept = 24560
rejected = 6230
matrix size = 22
fillins = 6
solver = Normal
Matrix Compiler1: 1.44 KB object code size  0.3/0.1/[0.1]
Matrix Compiler2: off  [0.1]/0.2/0.1

