Circuit: * D:\Git\Magnavox_TVG2\SPICE\new\SCR_revised.asc

Limiting rise time of source v5 to 1.39664e-008
Limiting fall time of source v5 to 1.39664e-008
Limiting rise time of source v3 to 1.39664e-008
Limiting fall time of source v3 to 1.39664e-008
Limiting rise time of source v2 to 1.25e-006
Limiting fall time of source v2 to 1.25e-006
Limiting rise time of source v1 to 3.1776e-006
Limiting fall time of source v1 to 3.1776e-006
WARNING: Less than two connections to node NC_01.  This node is used by R8.
Direct Newton iteration for .op point succeeded.

Date: Wed Aug 09 00:22:15 2023
Total elapsed time: 0.499 seconds.

tnom = 27
temp = 27
method = modified trap
totiter = 181136
traniter = 181120
tranpoints = 63766
accept = 49319
rejected = 14447
matrix size = 29
fillins = 6
solver = Normal
Matrix Compiler1: 1.81 KB object code size  0.3/0.2/[0.2]
Matrix Compiler2: off  [0.1]/0.2/0.2

