Circuit: * D:\Git\Magnavox_TVG2\SPICE\new\SCR_original.asc

Limiting rise time of source v6 to 1.39664e-008
Limiting fall time of source v6 to 1.39664e-008
Limiting rise time of source v3 to 1.39664e-008
Limiting fall time of source v3 to 1.39664e-008
Limiting rise time of source v2 to 1.25e-006
Limiting fall time of source v2 to 1.25e-006
Limiting rise time of source v1 to 3.1776e-006
Limiting fall time of source v1 to 3.1776e-006
WARNING: Less than two connections to node NC_01.  This node is used by R9.
Direct Newton iteration for .op point succeeded.

Date: Wed Aug 09 00:22:18 2023
Total elapsed time: 0.552 seconds.

tnom = 27
temp = 27
method = modified trap
totiter = 175016
traniter = 175000
tranpoints = 60683
accept = 47246
rejected = 13437
matrix size = 30
fillins = 2
solver = Normal
Matrix Compiler1: 1.54 KB object code size  0.3/0.1/[0.1]
Matrix Compiler2: off  [0.1]/0.2/0.2

