Circuit: * C:\Users\Matt\OneDrive - University of Pittsburgh\TVG2\Sync\horizontal_temp.asc

Direct Newton iteration for .op point succeeded.

Date: Fri Nov 12 15:24:58 2021
Total elapsed time: 0.037 seconds.

tnom = 27
temp = 27
method = modified trap
totiter = 2098
traniter = 2088
tranpoints = 1045
accept = 1045
rejected = 0
matrix size = 12
fillins = 6
solver = Normal
Matrix Compiler1: 1.13 KB object code size  0.2/0.1/[0.1]
Matrix Compiler2: off  [0.1]/0.2/0.1

