Circuit: * C:\Users\Matt\OneDrive - University of Pittsburgh\TVG2\Power\Power.asc

WARNING: Node NC_01 is floating.

WARNING: Less than two connections to node NC_01.  This node is used by C:X6:1.
.OP point found by inspection.
Heightened Def Con from 0.0388987 to 0.0388987
Heightened Def Con from 0.0388987 to 0.0388987
Heightened Def Con from 0.0388987 to 0.0388987
Heightened Def Con from 0.0388987 to 0.0388987
Heightened Def Con from 0.0388987 to 0.0388987
Heightened Def Con from 0.0388987 to 0.0388987
Heightened Def Con from 0.0388987 to 0.0388987
Heightened Def Con from 0.0388987 to 0.0388987
Heightened Def Con from 0.0388987 to 0.0388987
Heightened Def Con from 0.0390299 to 0.0390299
Heightened Def Con from 0.0390299 to 0.0390299
Heightened Def Con from 0.039062 to 0.039062
Heightened Def Con from 0.039062 to 0.039062
Heightened Def Con from 0.0393897 to 0.0393897
Heightened Def Con from 0.0551913 to 0.0551913
Heightened Def Con from 0.0551913 to 0.0551913
Heightened Def Con from 0.0551913 to 0.0551913
Heightened Def Con from 0.0551913 to 0.0551913
Heightened Def Con from 0.0551914 to 0.0551914
Heightened Def Con from 0.0719237 to 0.0719237
Heightened Def Con from 0.0720861 to 0.0720861
Heightened Def Con from 0.0885248 to 0.0885248
Heightened Def Con from 0.0885248 to 0.0885248
Heightened Def Con from 0.0885248 to 0.0885248
Heightened Def Con from 0.0885248 to 0.0885248
Heightened Def Con from 0.0889162 to 0.0889162
Heightened Def Con from 0.105192 to 0.105192
Heightened Def Con from 0.105192 to 0.105192
Heightened Def Con from 0.105192 to 0.105192
Heightened Def Con from 0.105192 to 0.105192
Heightened Def Con from 0.105192 to 0.105192
Heightened Def Con from 0.122479 to 0.122479
Heightened Def Con from 0.122609 to 0.122609
Heightened Def Con from 0.14645 to 0.14645
Heightened Def Con from 0.151702 to 0.151702
Heightened Def Con from 0.152093 to 0.152093
Heightened Def Con from 0.152746 to 0.152746
Heightened Def Con from 0.15519 to 0.15519
Heightened Def Con from 0.15519 to 0.15519
Heightened Def Con from 0.15519 to 0.15519
Heightened Def Con from 0.15519 to 0.15519
Heightened Def Con from 0.155451 to 0.155451
Heightened Def Con from 0.163117 to 0.163117
Heightened Def Con from 0.171858 to 0.171858
Heightened Def Con from 0.171858 to 0.171858
Heightened Def Con from 0.171858 to 0.171858
Heightened Def Con from 0.171858 to 0.171858
Heightened Def Con from 0.171858 to 0.171858
Heightened Def Con from 0.17202 to 0.17202
Heightened Def Con from 0.185687 to 0.185687
Heightened Def Con from 0.188524 to 0.188524
Heightened Def Con from 0.188524 to 0.188524
Heightened Def Con from 0.188524 to 0.188524
Heightened Def Con from 0.188524 to 0.188524
Heightened Def Con from 0.188524 to 0.188524
Heightened Def Con from 0.188524 to 0.188524
Heightened Def Con from 0.188524 to 0.188524
Heightened Def Con from 0.188524 to 0.188524
Heightened Def Con from 0.188524 to 0.188524
Heightened Def Con from 0.188524 to 0.188524
Heightened Def Con from 0.188524 to 0.188524
Heightened Def Con from 0.188524 to 0.188524
Heightened Def Con from 0.188524 to 0.188524
Heightened Def Con from 0.188524 to 0.188524
Heightened Def Con from 0.188916 to 0.188916
Heightened Def Con from 0.205192 to 0.205192
Heightened Def Con from 0.205354 to 0.205354
Heightened Def Con from 0.20555 to 0.20555
Heightened Def Con from 0.221858 to 0.221858
Heightened Def Con from 0.221858 to 0.221858
Heightened Def Con from 0.221923 to 0.221923
Heightened Def Con from 0.222152 to 0.222152
Heightened Def Con from 0.222315 to 0.222315
Heightened Def Con from 0.238525 to 0.238525
Heightened Def Con from 0.238525 to 0.238525
Heightened Def Con from 0.238721 to 0.238721
Heightened Def Con from 0.238721 to 0.238721
Heightened Def Con from 0.239439 to 0.239439
Heightened Def Con from 0.255192 to 0.255192
Heightened Def Con from 0.255192 to 0.255192
Heightened Def Con from 0.255192 to 0.255192
Heightened Def Con from 0.255192 to 0.255192
Heightened Def Con from 0.255225 to 0.255225
Heightened Def Con from 0.255421 to 0.255421
Heightened Def Con from 0.255486 to 0.255486
Heightened Def Con from 0.26925 to 0.26925
Heightened Def Con from 0.271859 to 0.271859
Heightened Def Con from 0.271859 to 0.271859
Heightened Def Con from 0.27225 to 0.27225
Heightened Def Con from 0.272543 to 0.272543
Heightened Def Con from 0.285068 to 0.285068
Heightened Def Con from 0.285492 to 0.285492
Heightened Def Con from 0.288524 to 0.288524
Heightened Def Con from 0.288524 to 0.288524
Heightened Def Con from 0.288524 to 0.288524
Heightened Def Con from 0.288524 to 0.288524
Heightened Def Con from 0.288524 to 0.288524
Heightened Def Con from 0.288524 to 0.288524
Heightened Def Con from 0.288524 to 0.288524
Heightened Def Con from 0.288524 to 0.288524
Heightened Def Con from 0.288524 to 0.288524
Heightened Def Con from 0.288524 to 0.288524
Heightened Def Con from 0.288524 to 0.288524
Heightened Def Con from 0.288688 to 0.288688
Heightened Def Con from 0.288785 to 0.288785
Heightened Def Con from 0.289633 to 0.289633
Heightened Def Con from 0.289666 to 0.289666
Heightened Def Con from 0.29645 to 0.29645
Heightened Def Con from 0.29645 to 0.29645
Heightened Def Con from 0.305419 to 0.305419
Heightened Def Con from 0.305419 to 0.305419
Heightened Def Con from 0.321857 to 0.321857
Heightened Def Con from 0.321857 to 0.321857
Heightened Def Con from 0.321857 to 0.321857
Heightened Def Con from 0.321857 to 0.321857
Heightened Def Con from 0.321857 to 0.321857
Heightened Def Con from 0.321857 to 0.321857
Heightened Def Con from 0.321857 to 0.321857
Heightened Def Con from 0.321857 to 0.321857
Heightened Def Con from 0.321857 to 0.321857
Heightened Def Con from 0.321857 to 0.321857
Heightened Def Con from 0.321857 to 0.321857
Heightened Def Con from 0.321922 to 0.321922
Heightened Def Con from 0.322086 to 0.322086
Heightened Def Con from 0.32264 to 0.32264
Heightened Def Con from 0.338524 +to 0.338524
Heightened Def Con from 0.338524 to 0.338524
Heightened Def Con from 0.338524 to 0.338524
Heightened Def Con from 0.338524 to 0.338524
Heightened Def Con from 0.338524 to 0.338524
Heightened Def Con from 0.338524 to 0.338524
Heightened Def Con from 0.338524 to 0.338524
Heightened Def Con from 0.338524 to 0.338524
Heightened Def Con from 0.338524 to 0.338524
Heightened Def Con from 0.338524 to 0.338524
Heightened Def Con from 0.338524 to 0.338524
Heightened Def Con from 0.338524 to 0.338524
Heightened Def Con from 0.338524 to 0.338524
Heightened Def Con from 0.338524 to 0.338524
Heightened Def Con from 0.338524 to 0.338524
Heightened Def Con from 0.338524 to 0.338524
Heightened Def Con from 0.338524 to 0.338524
Heightened Def Con from 0.338524 to 0.338524
Heightened Def Con from 0.338524 to 0.338524
Heightened Def Con from 0.338785 to 0.338785
Heightened Def Con from 0.35519 to 0.35519
Heightened Def Con from 0.35519 to 0.35519
Heightened Def Con from 0.35519 to 0.35519
Heightened Def Con from 0.355224 to 0.355224
Heightened Def Con from 0.355224 to 0.355224
Heightened Def Con from 0.355386 to 0.355386
Heightened Def Con from 0.355647 to 0.355647
Heightened Def Con from 0.369248 to 0.369248
Heightened Def Con from 0.371858 to 0.371858
Heightened Def Con from 0.371858 to 0.371858
Heightened Def Con from 0.371858 to 0.371858
Heightened Def Con from 0.371858 to 0.371858
Heightened Def Con from 0.372085 to 0.372085
Heightened Def Con from 0.372672 to 0.372672
Heightened Def Con from 0.388654 to 0.388654
Heightened Def Con from 0.38872 to 0.38872
Heightened Def Con from 0.388753 to 0.388753
Heightened Def Con from 0.405191 to 0.405191
Heightened Def Con from 0.405191 to 0.405191
Heightened Def Con from 0.405191 to 0.405191
Heightened Def Con from 0.405191 to 0.405191
Heightened Def Con from 0.405191 to 0.405191
Heightened Def Con from 0.405191 to 0.405191
Heightened Def Con from 0.405191 to 0.405191
Heightened Def Con from 0.405191 to 0.405191
Heightened Def Con from 0.405191 to 0.405191
Heightened Def Con from 0.405191 to 0.405191
Heightened Def Con from 0.405191 to 0.405191
Heightened Def Con from 0.405322 to 0.405322
Heightened Def Con from 0.419086 to 0.419086
Heightened Def Con from 0.421857 to 0.421857
Heightened Def Con from 0.421857 to 0.421857
Heightened Def Con from 0.421857 to 0.421857
Heightened Def Con from 0.422021 to 0.422021
Heightened Def Con from 0.422118 to 0.422118
Heightened Def Con from 0.422118 to 0.422118
Heightened Def Con from 0.422118 to 0.422118
Heightened Def Con from 0.422151 to 0.422151
Heightened Def Con from 0.435654 to 0.435654
Heightened Def Con from 0.438524 to 0.438524
Heightened Def Con from 0.438524 to 0.438524
Heightened Def Con from 0.438524 to 0.438524
Heightened Def Con from 0.438524 to 0.438524
Heightened Def Con from 0.438524 to 0.438524
Heightened Def Con from 0.438524 to 0.438524
Heightened Def Con from 0.438524 to 0.438524
Heightened Def Con from 0.438524 to 0.438524
Heightened Def Con from 0.438622 to 0.438622
Heightened Def Con from 0.438785 to 0.438785
Heightened Def Con from 0.439242 to 0.439242
Heightened Def Con from 0.45232 to 0.45232
Heightened Def Con from 0.45519 to 0.45519
Heightened Def Con from 0.45519 to 0.45519
Heightened Def Con from 0.45519 to 0.45519
Heightened Def Con from 0.45519 to 0.45519
Heightened Def Con from 0.45519 to 0.45519
Heightened Def Con from 0.45519 to 0.45519
Heightened Def Con from 0.45519 to 0.45519
Heightened Def Con from 0.455224 to 0.455224
Heightened Def Con from 0.455289 to 0.455289
Heightened Def Con from 0.463117 to 0.463117
Heightened Def Con from 0.463117 to 0.463117
Heightened Def Con from 0.463117 to 0.463117
Heightened Def Con from 0.471858 to 0.471858
Heightened Def Con from 0.471858 to 0.471858
Heightened Def Con from 0.471858 to 0.471858
Heightened Def Con from 0.471858 to 0.471858
Heightened Def Con from 0.471858 to 0.471858
Heightened Def Con from 0.471858 to 0.471858
Heightened Def Con from 0.471858 to 0.471858
Heightened Def Con from 0.471988 to 0.471988
Heightened Def Con from 0.47202 to 0.47202
Heightened Def Con from 0.472281 to 0.472281
Heightened Def Con from 0.472346 to 0.472346
Heightened Def Con from 0.472346 to 0.472346
Heightened Def Con from 0.488523 to 0.488523
Heightened Def Con from 0.488523 to 0.488523
Heightened Def Con from 0.488686 to 0.488686
Heightened Def Con from 0.488947 to 0.488947
Heightened Def Con from 0.50519 to 0.50519
Heightened Def Con from 0.50519 to 0.50519
Heightened Def Con from 0.50519 to 0.50519
Heightened Def Con from 0.50519 to 0.50519
Heightened Def Con from 0.50519 to 0.50519
Heightened Def Con from 0.50519 to 0.50519
Heightened Def Con from 0.50519 to 0.50519
Heightened Def Con from 0.50519 to 0.50519
Heightened Def Con from 0.50519 to 0.50519
Heightened Def Con from 0.50519 to 0.50519
Heightened Def Con from 0.50519 to 0.50519
Heightened Def Con from 0.505483 to 0.505483
Heightened Def Con from 0.519345 to 0.519345
Heightened Def Con from 0.519442 to 0.519442
Heightened Def Con from 0.519475 to 0.519475
Heightened Def Con from 0.521855 to 0.521855
Heightened Def Con from 0.521855 to 0.521855
Heightened Def Con from 0.521855 to 0.521855
Heightened Def Con from 0.521855 to 0.521855
Heightened Def Con from 0.521855 to 0.521855
Heightened Def Con from 0.521855 to 0.521855
Heightened Def Con from 0.521855 to 0.521855
Heightened Def Con from 0.521855 to 0.521855
Heightened Def Con from 0.521855 to 0.521855
Heightened Def Con from 0.521855 to 0.521855
Heightened Def Con from 0.521855 to 0.521855
Heightened Def Con from 0.521855 to 0.521855
Heightened Def Con from 0.521855 to 0.521855
Heightened Def Con from 0.521855 to 0.521855
Heightened Def Con from 0.521855 to 0.521855
Heightened Def Con from 0.521855 to 0.521855
Heightened Def Con from 0.521855 to 0.521855
Heightened Def Con from 0.521855 to 0.521855
Heightened Def Con from 0.521855 to 0.521855
Heightened Def Con from 0.521855 to 0.521855
Heightened Def Con from 0.521855 to 0.521855
Heightened Def Con from 0.521855 to 0.521855
Heightened Def Con from 0.521855 to 0.521855
Heightened Def Con from 0.521855 to 0.521855
Heightened Def Con from 0.521855 to 0.521855
Heightened Def Con from 0.521855 to 0.521855
Heightened Def Con from 0.522051 to 0.522051
Heightened Def Con from 0.522116 to 0.522116
Heightened Def Con from 0.522476 to 0.522476
Heightened Def Con from 0.536141 to 0.536141
Heightened Def Con from 0.538522 to 0.538522
Heightened Def Con from 0.538522 to 0.538522
Heightened Def Con from 0.538522 to 0.538522
Heightened Def Con from 0.538522 to 0.538522
Heightened Def Con from 0.538522 to 0.538522
Heightened Def Con from 0.538522 to 0.538522
Heightened Def Con from 0.538522 to 0.538522
Heightened Def Con from 0.538522 to 0.538522
Heightened Def Con from 0.538522 to 0.538522
Heightened Def Con from 0.538522 to 0.538522
Heightened Def Con from 0.538522 to 0.538522
Heightened Def Con from 0.538522 to 0.538522
Heightened Def Con from 0.538522 to 0.538522
Heightened Def Con from 0.538522 to 0.538522
Heightened Def Con from 0.538522 to 0.538522
Heightened Def Con from 0.538522 to 0.538522
Heightened Def Con from 0.538522 to 0.538522
Heightened Def Con from 0.538522 to 0.538522
Heightened Def Con from 0.538522 to 0.538522
Heightened Def Con from 0.538522 to 0.538522
Heightened Def Con from 0.538522 to 0.538522
Heightened Def Con from 0.538522 to 0.538522
Heightened Def Con from 0.538522 to 0.538522
Heightened Def Con from 0.538522 to 0.538522
Heightened Def Con from 0.538522 to 0.538522
Heightened Def Con from 0.538522 to 0.538522
Heightened Def Con from 0.538522 to 0.538522
Heightened Def Con from 0.538522 to 0.538522
Heightened Def Con from 0.538522 to 0.538522
Heightened Def Con from 0.538522 to 0.538522
Heightened Def Con from 0.538522 to 0.538522
Heightened Def Con from 0.538522 to 0.538522
Heightened Def Con from 0.538522 to 0.538522
Heightened Def Con from 0.538522 to 0.538522
Heightened Def Con from 0.538522 +to 0.538522
Heightened Def Con from 0.538522 to 0.538522
Heightened Def Con from 0.538522 to 0.538522
Heightened Def Con from 0.538522 to 0.538522
Heightened Def Con from 0.538522 to 0.538522
Heightened Def Con from 0.538522 to 0.538522
Heightened Def Con from 0.538522 to 0.538522
Heightened Def Con from 0.538522 to 0.538522
Heightened Def Con from 0.538522 to 0.538522
Heightened Def Con from 0.538522 to 0.538522
Heightened Def Con from 0.538522 to 0.538522
Heightened Def Con from 0.538522 to 0.538522
Heightened Def Con from 0.538522 to 0.538522
Heightened Def Con from 0.538522 to 0.538522
Heightened Def Con from 0.538522 to 0.538522
Heightened Def Con from 0.538522 to 0.538522
Heightened Def Con from 0.538522 to 0.538522
Heightened Def Con from 0.538522 to 0.538522
Heightened Def Con from 0.538522 to 0.538522
Heightened Def Con from 0.538522 +to 0.538522
Heightened Def Con from 0.538522 to 0.538522
Heightened Def Con from 0.538522 to 0.538522
Heightened Def Con from 0.538522 to 0.538522
Heightened Def Con from 0.538522 to 0.538522
Heightened Def Con from 0.538522 to 0.538522
Heightened Def Con from 0.538522 to 0.538522
Heightened Def Con from 0.538522 to 0.538522
Heightened Def Con from 0.538522 to 0.538522
Heightened Def Con from 0.538522 to 0.538522
Heightened Def Con from 0.538522 to 0.538522
Heightened Def Con from 0.538522 to 0.538522
Heightened Def Con from 0.538522 to 0.538522
Heightened Def Con from 0.538522 to 0.538522
Heightened Def Con from 0.538522 to 0.538522
Heightened Def Con from 0.538522 to 0.538522
Heightened Def Con from 0.538522 to 0.538522
Heightened Def Con from 0.538522 to 0.538522
Heightened Def Con from 0.538522 to 0.538522
Heightened Def Con from 0.538522 to 0.538522
Heightened Def Con from 0.538522 to 0.538522
Heightened Def Con from 0.538522 to 0.538522
Heightened Def Con from 0.538522 to 0.538522
Heightened Def Con from 0.538522 to 0.538522
Heightened Def Con from 0.538522 to 0.538522
Heightened Def Con from 0.538522 to 0.538522
Heightened Def Con from 0.555188 to 0.555188
Heightened Def Con from 0.555188 to 0.555188
Heightened Def Con from 0.555188 to 0.555188
Heightened Def Con from 0.555188 to 0.555188
Heightened Def Con from 0.555188 to 0.555188
Heightened Def Con from 0.555188 to 0.555188
Heightened Def Con from 0.555188 to 0.555188
Heightened Def Con from 0.555188 to 0.555188
Heightened Def Con from 0.555188 to 0.555188
Heightened Def Con from 0.555188 to 0.555188
Heightened Def Con from 0.555188 to 0.555188
Heightened Def Con from 0.555352 to 0.555352
Heightened Def Con from 0.569441 to 0.569441
Heightened Def Con from 0.571855 to 0.571855
Heightened Def Con from 0.571855 to 0.571855
Heightened Def Con from 0.571855 to 0.571855
Heightened Def Con from 0.571855 to 0.571855
Heightened Def Con from 0.571855 to 0.571855
Heightened Def Con from 0.571855 to 0.571855
Heightened Def Con from 0.571855 to 0.571855
Heightened Def Con from 0.571855 to 0.571855
Heightened Def Con from 0.571855 to 0.571855
Heightened Def Con from 0.571855 to 0.571855
Heightened Def Con from 0.571855 to 0.571855
Heightened Def Con from 0.571855 to 0.571855
Heightened Def Con from 0.571855 to 0.571855
Heightened Def Con from 0.571855 to 0.571855
Heightened Def Con from 0.571855 to 0.571855
Heightened Def Con from 0.571855 to 0.571855
Heightened Def Con from 0.571855 to 0.571855
Heightened Def Con from 0.571855 to 0.571855
Heightened Def Con from 0.571855 to 0.571855
Heightened Def Con from 0.571855 to 0.571855
Heightened Def Con from 0.571952 to 0.571952
Heightened Def Con from 0.572018 to 0.572018
Heightened Def Con from 0.572279 to 0.572279
Heightened Def Con from 0.572344 to 0.572344
Heightened Def Con from 0.57267 to 0.57267
Heightened Def Con from 0.58601 to 0.58601
Heightened Def Con from 0.588521 to 0.588521
Heightened Def Con from 0.588521 to 0.588521
Heightened Def Con from 0.588521 to 0.588521
Heightened Def Con from 0.588521 to 0.588521
Heightened Def Con from 0.588521 to 0.588521
Heightened Def Con from 0.588521 to 0.588521
Heightened Def Con from 0.588521 to 0.588521
Heightened Def Con from 0.588521 to 0.588521
Heightened Def Con from 0.588521 to 0.588521
Heightened Def Con from 0.588521 to 0.588521
Heightened Def Con from 0.588521 to 0.588521
Heightened Def Con from 0.588521 to 0.588521
Heightened Def Con from 0.588521 to 0.588521
Heightened Def Con from 0.588521 to 0.588521
Heightened Def Con from 0.588521 to 0.588521
Heightened Def Con from 0.588521 to 0.588521
Heightened Def Con from 0.588521 to 0.588521
Heightened Def Con from 0.588521 to 0.588521
Heightened Def Con from 0.588521 to 0.588521
Heightened Def Con from 0.588521 to 0.588521
Heightened Def Con from 0.588521 to 0.588521
Heightened Def Con from 0.588521 to 0.588521
Heightened Def Con from 0.589173 to 0.589173
Heightened Def Con from 0.605187 to 0.605187
Heightened Def Con from 0.605187 to 0.605187
Heightened Def Con from 0.605187 to 0.605187
Heightened Def Con from 0.605187 to 0.605187
Heightened Def Con from 0.605187 to 0.605187
Heightened Def Con from 0.605187 to 0.605187
Heightened Def Con from 0.605187 to 0.605187
Heightened Def Con from 0.605187 to 0.605187
Heightened Def Con from 0.605187 to 0.605187
Heightened Def Con from 0.605187 to 0.605187
Heightened Def Con from 0.605187 to 0.605187
Heightened Def Con from 0.605187 to 0.605187
Heightened Def Con from 0.605187 to 0.605187
Heightened Def Con from 0.605187 to 0.605187
Heightened Def Con from 0.605187 to 0.605187
Heightened Def Con from 0.605187 to 0.605187
Heightened Def Con from 0.605187 to 0.605187
Heightened Def Con from 0.605187 to 0.605187
Heightened Def Con from 0.605284 to 0.605284
Heightened Def Con from 0.621853 to 0.621853
Heightened Def Con from 0.621853 to 0.621853
Heightened Def Con from 0.621853 to 0.621853
Heightened Def Con from 0.621853 to 0.621853
Heightened Def Con from 0.621853 to 0.621853
Heightened Def Con from 0.621853 to 0.621853
Heightened Def Con from 0.621853 to 0.621853
Heightened Def Con from 0.621853 to 0.621853
Heightened Def Con from 0.621853 to 0.621853
Heightened Def Con from 0.621853 to 0.621853
Heightened Def Con from 0.621853 to 0.621853
Heightened Def Con from 0.621853 to 0.621853
Heightened Def Con from 0.621853 to 0.621853
Heightened Def Con from 0.621853 to 0.621853
Heightened Def Con from 0.621853 to 0.621853
Heightened Def Con from 0.621853 to 0.621853
Heightened Def Con from 0.621853 to 0.621853
Heightened Def Con from 0.621952 to 0.621952
Heightened Def Con from 0.622082 to 0.622082
Heightened Def Con from 0.622114 to 0.622114
Heightened Def Con from 0.622114 to 0.622114
Heightened Def Con from 0.622571 to 0.622571
Heightened Def Con from 0.63852 to 0.63852
Heightened Def Con from 0.63852 to 0.63852
Heightened Def Con from 0.63852 to 0.63852
Heightened Def Con from 0.63852 to 0.63852
Heightened Def Con from 0.63852 to 0.63852
Heightened Def Con from 0.63852 to 0.63852
Heightened Def Con from 0.63852 to 0.63852
Heightened Def Con from 0.63852 to 0.63852
Heightened Def Con from 0.63852 to 0.63852
Heightened Def Con from 0.63852 to 0.63852
Heightened Def Con from 0.63852 to 0.63852
Heightened Def Con from 0.63852 to 0.63852
Heightened Def Con from 0.63852 to 0.63852
Heightened Def Con from 0.63852 to 0.63852
Heightened Def Con from 0.63852 to 0.63852
Heightened Def Con from 0.63852 to 0.63852
Heightened Def Con from 0.63852 to 0.63852
Heightened Def Con from 0.63852 to 0.63852
Heightened Def Con from 0.63852 to 0.63852
Heightened Def Con from 0.63852 to 0.63852
Heightened Def Con from 0.63852 to 0.63852
Heightened Def Con from 0.63852 to 0.63852
Heightened Def Con from 0.63852 to 0.63852
Heightened Def Con from 0.63852 to 0.63852
Heightened Def Con from 0.63852 to 0.63852
Heightened Def Con from 0.63852 to 0.63852
Heightened Def Con from 0.63852 to 0.63852
Heightened Def Con from 0.63852 to 0.63852
Heightened Def Con from 0.63852 to 0.63852
Heightened Def Con from 0.63852 to 0.63852
Heightened Def Con from 0.63852 to 0.63852
Heightened Def Con from 0.63852 to 0.63852
Heightened Def Con from 0.63852 to 0.63852
Heightened Def Con from 0.63852 to 0.63852
Heightened Def Con from 0.638552 to 0.638552
Heightened Def Con from 0.639204 to 0.639204
Heightened Def Con from 0.652251 to 0.652251
Heightened Def Con from 0.655186 to 0.655186
Heightened Def Con from 0.655186 to 0.655186
Heightened Def Con from 0.655186 to 0.655186
Heightened Def Con from 0.655186 to 0.655186
Heightened Def Con from 0.655186 to 0.655186
Heightened Def Con from 0.655186 to 0.655186
Heightened Def Con from 0.655186 to 0.655186
Heightened Def Con from 0.671853 to 0.671853
Heightened Def Con from 0.671853 to 0.671853
Heightened Def Con from 0.671853 to 0.671853
Heightened Def Con from 0.671853 to 0.671853
Heightened Def Con from 0.671853 to 0.671853
Heightened Def Con from 0.671853 to 0.671853
Heightened Def Con from 0.671853 +to 0.671853
Heightened Def Con from 0.671853 to 0.671853
Heightened Def Con from 0.671853 to 0.671853
Heightened Def Con from 0.671853 to 0.671853
Heightened Def Con from 0.671853 to 0.671853
Heightened Def Con from 0.671853 to 0.671853
Heightened Def Con from 0.671853 to 0.671853
Heightened Def Con from 0.671853 to 0.671853
Heightened Def Con from 0.671853 to 0.671853
Heightened Def Con from 0.671853 to 0.671853
Heightened Def Con from 0.671853 to 0.671853
Heightened Def Con from 0.671853 to 0.671853
Heightened Def Con from 0.671853 to 0.671853
Heightened Def Con from 0.671853 to 0.671853
Heightened Def Con from 0.671853 to 0.671853
Heightened Def Con from 0.671853 to 0.671853
Heightened Def Con from 0.671853 to 0.671853
Heightened Def Con from 0.671853 to 0.671853
Heightened Def Con from 0.671853 to 0.671853
Heightened Def Con from 0.671853 to 0.671853
Heightened Def Con from 0.671853 to 0.671853
Heightened Def Con from 0.671853 to 0.671853
Heightened Def Con from 0.671853 to 0.671853
Heightened Def Con from 0.671853 to 0.671853
Heightened Def Con from 0.671853 to 0.671853
Heightened Def Con from 0.671853 to 0.671853
Heightened Def Con from 0.671853 to 0.671853
Heightened Def Con from 0.671853 to 0.671853
Heightened Def Con from 0.671853 to 0.671853
Heightened Def Con from 0.671853 to 0.671853
Heightened Def Con from 0.671919 to 0.671919
Heightened Def Con from 0.672146 to 0.672146
Heightened Def Con from 0.672245 to 0.672245
Heightened Def Con from 0.688519 to 0.688519
Heightened Def Con from 0.688519 to 0.688519
Heightened Def Con from 0.688519 to 0.688519
Heightened Def Con from 0.688519 to 0.688519
Heightened Def Con from 0.688519 to 0.688519
Heightened Def Con from 0.688519 to 0.688519
Heightened Def Con from 0.688683 to 0.688683
Heightened Def Con from 0.705186 to 0.705186
Heightened Def Con from 0.705186 +to 0.705186
Heightened Def Con from 0.705186 to 0.705186
Heightened Def Con from 0.705186 to 0.705186
Heightened Def Con from 0.705186 to 0.705186
Heightened Def Con from 0.705186 to 0.705186
Heightened Def Con from 0.705186 to 0.705186
Heightened Def Con from 0.705187 to 0.705187
Heightened Def Con from 0.705187 to 0.705187
Heightened Def Con from 0.705187 to 0.705187
Heightened Def Con from 0.705187 to 0.705187
Heightened Def Con from 0.705187 to 0.705187
Heightened Def Con from 0.705187 to 0.705187
Heightened Def Con from 0.705187 to 0.705187
Heightened Def Con from 0.705187 to 0.705187
Heightened Def Con from 0.705187 to 0.705187
Heightened Def Con from 0.705187 to 0.705187
Heightened Def Con from 0.705187 to 0.705187
Heightened Def Con from 0.705187 to 0.705187
Heightened Def Con from 0.705187 to 0.705187
Heightened Def Con from 0.705187 to 0.705187
Heightened Def Con from 0.705187 to 0.705187
Heightened Def Con from 0.705187 to 0.705187
Heightened Def Con from 0.705187 to 0.705187
Heightened Def Con from 0.705187 to 0.705187
Heightened Def Con from 0.705349 to 0.705349
Heightened Def Con from 0.705349 to 0.705349
Heightened Def Con from 0.705447 to 0.705447
Heightened Def Con from 0.70561 to 0.70561
Heightened Def Con from 0.705839 to 0.705839
Heightened Def Con from 0.721852 to 0.721852
Heightened Def Con from 0.721852 to 0.721852
Heightened Def Con from 0.721852 to 0.721852
Heightened Def Con from 0.721852 to 0.721852
Heightened Def Con from 0.721852 to 0.721852
Heightened Def Con from 0.721852 +to 0.721852
Heightened Def Con from 0.721852 to 0.721852
Heightened Def Con from 0.721852 to 0.721852
Heightened Def Con from 0.721852 to 0.721852
Heightened Def Con from 0.721852 to 0.721852
Heightened Def Con from 0.721852 to 0.721852
Heightened Def Con from 0.721852 to 0.721852
Heightened Def Con from 0.721852 to 0.721852
Heightened Def Con from 0.721852 to 0.721853
Heightened Def Con from 0.721853 to 0.721853
Heightened Def Con from 0.721853 to 0.721853
Heightened Def Con from 0.721853 to 0.721853
Heightened Def Con from 0.721853 to 0.721853
Heightened Def Con from 0.721853 to 0.721853
Heightened Def Con from 0.721853 to 0.721853
Heightened Def Con from 0.721853 to 0.721853
Heightened Def Con from 0.721853 to 0.721853
Heightened Def Con from 0.721853 to 0.721853
Heightened Def Con from 0.721853 to 0.721853
Heightened Def Con from 0.721853 to 0.721853
Heightened Def Con from 0.721853 to 0.721853
Heightened Def Con from 0.722244 to 0.722244
Heightened Def Con from 0.736073 to 0.736073
Heightened Def Con from 0.73852 to 0.73852
Heightened Def Con from 0.73852 to 0.73852
Heightened Def Con from 0.73852 to 0.73852
Heightened Def Con from 0.73852 to 0.73852
Heightened Def Con from 0.73852 to 0.73852
Heightened Def Con from 0.73852 to 0.73852
Heightened Def Con from 0.73852 to 0.73852
Heightened Def Con from 0.73852 to 0.73852
Heightened Def Con from 0.73852 to 0.73852
Heightened Def Con from 0.73852 to 0.73852
Heightened Def Con from 0.73852 to 0.73852
Heightened Def Con from 0.73852 to 0.73852
Heightened Def Con from 0.752381 to 0.752381
Heightened Def Con from 0.752511 to 0.752511
Heightened Def Con from 0.755186 to 0.755186
Heightened Def Con from 0.755186 to 0.755186
Heightened Def Con from 0.755186 to 0.755186
Heightened Def Con from 0.755186 to 0.755186
Heightened Def Con from 0.755186 to 0.755186
Heightened Def Con from 0.755186 to 0.755186
Heightened Def Con from 0.755186 +to 0.755186
Heightened Def Con from 0.755186 to 0.755186
Heightened Def Con from 0.755186 to 0.755186
Heightened Def Con from 0.755186 to 0.755186
Heightened Def Con from 0.755186 to 0.755186
Heightened Def Con from 0.755219 to 0.755219
Heightened Def Con from 0.755251 to 0.755251
Heightened Def Con from 0.755349 to 0.755349
Heightened Def Con from 0.755381 to 0.755381
Heightened Def Con from 0.755447 to 0.755447
Heightened Def Con from 0.75548 to 0.75548
Heightened Def Con from 0.755545 to 0.755545
Heightened Def Con from 0.755545 to 0.755545
Heightened Def Con from 0.755903 to 0.755903
Heightened Def Con from 0.756164 to 0.756164
Heightened Def Con from 0.771852 to 0.771852
Heightened Def Con from 0.771852 to 0.771852
Heightened Def Con from 0.771852 to 0.771852
Heightened Def Con from 0.771949 to 0.771949
Heightened Def Con from 0.773026 to 0.773026
Heightened Def Con from 0.785681 to 0.785681
Heightened Def Con from 0.788518 to 0.788518
Heightened Def Con from 0.788518 to 0.788518
Heightened Def Con from 0.788518 to 0.788518
Heightened Def Con from 0.788518 to 0.788518
Heightened Def Con from 0.788518 to 0.788518
Heightened Def Con from 0.788551 to 0.788551
Heightened Def Con from 0.788844 to 0.788844
Heightened Def Con from 0.805185 to 0.805185
Heightened Def Con from 0.80525 to 0.80525
Heightened Def Con from 0.805282 to 0.805282
Heightened Def Con from 0.805739 to 0.805739
Heightened Def Con from 0.806 to 0.806
Heightened Def Con from 0.821851 to 0.821851
Heightened Def Con from 0.821851 to 0.821851
Heightened Def Con from 0.821851 to 0.821851
Heightened Def Con from 0.821851 to 0.821851
Heightened Def Con from 0.821981 to 0.821981
Heightened Def Con from 0.821981 to 0.821981
Heightened Def Con from 0.822438 to 0.822438
Heightened Def Con from 0.823058 to 0.823058
Heightened Def Con from 0.838518 to 0.838518
Heightened Def Con from 0.838518 to 0.838518
Heightened Def Con from 0.852804 to 0.852804
Heightened Def Con from 0.855184 to 0.855184
Heightened Def Con from 0.855184 to 0.855184
Heightened Def Con from 0.855184 to 0.855184
Heightened Def Con from 0.855315 to 0.855315
Heightened Def Con from 0.855445 to 0.855445
Heightened Def Con from 0.869014 to 0.869014
Heightened Def Con from 0.869112 to 0.869112
Heightened Def Con from 0.871852 to 0.871852
Heightened Def Con from 0.871852 to 0.871852
Heightened Def Con from 0.871852 to 0.871852
Heightened Def Con from 0.871852 to 0.871852
Heightened Def Con from 0.871852 to 0.871852
Heightened Def Con from 0.871982 to 0.871982
Heightened Def Con from 0.885778 to 0.885778
Heightened Def Con from 0.888518 to 0.888518
Heightened Def Con from 0.888518 to 0.888518
Heightened Def Con from 0.888518 to 0.888518
Heightened Def Con from 0.888648 to 0.888648
Heightened Def Con from 0.888713 to 0.888713
Heightened Def Con from 0.888877 to 0.888877
Heightened Def Con from 0.888974 to 0.888974
Heightened Def Con from 0.905185 to 0.905185
Heightened Def Con from 0.905315 to 0.905315
Heightened Def Con from 0.905869 to 0.905869
Heightened Def Con from 0.919046 to 0.919046
Heightened Def Con from 0.919046 to 0.919046
Heightened Def Con from 0.921851 to 0.921851
Heightened Def Con from 0.922177 to 0.922177
Heightened Def Con from 0.922177 to 0.922177
Heightened Def Con from 0.938517 to 0.938517
Heightened Def Con from 0.938517 to 0.938517
Heightened Def Con from 0.938582 to 0.938582
Heightened Def Con from 0.939496 to 0.939496
Heightened Def Con from 0.952477 to 0.952477
Heightened Def Con from 0.955183 to 0.955183
Heightened Def Con from 0.955183 to 0.955183
Heightened Def Con from 0.955183 to 0.955183
Heightened Def Con from 0.97185 to 0.97185
Heightened Def Con from 0.97185 to 0.97185
Heightened Def Con from 0.97185 to 0.97185
Heightened Def Con from 0.97185 to 0.97185
Heightened Def Con from 0.971915 to 0.971915
Heightened Def Con from 0.971947 to 0.971947
Heightened Def Con from 0.971947 to 0.971947
Heightened Def Con from 0.972012 to 0.972012
Heightened Def Con from 0.972142 to 0.972142
Heightened Def Con from 0.972241 to 0.972241
Heightened Def Con from 0.972567 to 0.972567
Heightened Def Con from 0.986036 to 0.986036
Heightened Def Con from 0.98907 to 0.98907
Heightened Def Con from 0.9892 to 0.9892
Heightened Def Con from 0.9892 to 0.9892
Heightened Def Con from 0.989558 to 0.989558

Date: Tue Nov 16 16:43:21 2021
Total elapsed time: 47.479 seconds.

tnom = 27
temp = 27
method = modified trap
totiter = 8686877
traniter = 8686877
tranpoints = 2525317
accept = 1768287
rejected = 757753
matrix size = 49
fillins = 32
solver = Normal
Matrix Compiler1: 4.90 KB object code size  0.8/0.4/[0.3]
Matrix Compiler2: 4.41 KB object code size  0.3/0.5/[0.3]

